Running Sphinx v7.2.6
loading pickled environment... done
building [mo]: targets for 0 po files that are out of date
writing output... 
building [html]: targets for 12 source files that are out of date
updating environment: 0 added, 12 changed, 0 removed
[2Kreading sources... [  8%] annotations[2Kreading sources... [ 17%] api/app[2Kreading sources... [ 25%] api/index[2Kreading sources... [ 33%] development/contributing[2Kreading sources... [ 42%] development/extending[2Kreading sources... [ 50%] development/index[2Kreading sources... [ 58%] development/testing[2Kreading sources... [ 67%] examples/basic_workflow[2Kreading sources... [ 75%] examples/fft_analysis[2Kreading sources... [ 83%] examples/index[2Kreading sources... [ 92%] user_guide/getting_started[2Kreading sources... [100%] user_guide/index
/Users/mchetan/Desktop/nrel/projects/3-STABLE/tools/remoteOpenFASTplotter/docs/annotations.rst:8: WARNING: Title underline too short.

Why Use Annotations?
------------------
/Users/mchetan/Desktop/nrel/projects/3-STABLE/tools/remoteOpenFASTplotter/docs/annotations.rst:19: WARNING: Title underline too short.

Using the Annotation System
-------------------------
/Users/mchetan/Desktop/nrel/projects/3-STABLE/tools/remoteOpenFASTplotter/docs/annotations.rst:19: WARNING: Title underline too short.

Using the Annotation System
-------------------------
/Users/mchetan/Desktop/nrel/projects/3-STABLE/tools/remoteOpenFASTplotter/docs/annotations.rst:22: WARNING: Title underline too short.

Adding Annotations
~~~~~~~~~~~~~~~~
/Users/mchetan/Desktop/nrel/projects/3-STABLE/tools/remoteOpenFASTplotter/docs/annotations.rst:34: WARNING: Title underline too short.

Managing Annotations
~~~~~~~~~~~~~~~~~
/Users/mchetan/Desktop/nrel/projects/3-STABLE/tools/remoteOpenFASTplotter/docs/annotations.rst:34: WARNING: Title underline too short.

Managing Annotations
~~~~~~~~~~~~~~~~~
/Users/mchetan/Desktop/nrel/projects/3-STABLE/tools/remoteOpenFASTplotter/docs/annotations.rst:46: WARNING: Title underline too short.

Common Annotation Practices
-------------------------
/Users/mchetan/Desktop/nrel/projects/3-STABLE/tools/remoteOpenFASTplotter/docs/annotations.rst:46: WARNING: Title underline too short.

Common Annotation Practices
-------------------------
/Users/mchetan/Desktop/nrel/projects/3-STABLE/tools/remoteOpenFASTplotter/docs/annotations.rst:49: WARNING: Title underline too short.

Wind Turbine Analysis
~~~~~~~~~~~~~~~~~~~
/Users/mchetan/Desktop/nrel/projects/3-STABLE/tools/remoteOpenFASTplotter/docs/annotations.rst:61: WARNING: Title underline too short.

Naming Conventions
~~~~~~~~~~~~~~~~
/Users/mchetan/Desktop/nrel/projects/3-STABLE/tools/remoteOpenFASTplotter/docs/annotations.rst:61: WARNING: Title underline too short.

Naming Conventions
~~~~~~~~~~~~~~~~
/Users/mchetan/Desktop/nrel/projects/3-STABLE/tools/remoteOpenFASTplotter/docs/annotations.rst:71: WARNING: Title underline too short.

Example Workflow
--------------
/Users/mchetan/Desktop/nrel/projects/3-STABLE/tools/remoteOpenFASTplotter/docs/annotations.rst:71: WARNING: Title underline too short.

Example Workflow
--------------
/Users/mchetan/Desktop/nrel/projects/3-STABLE/tools/remoteOpenFASTplotter/docs/annotations.rst:99: WARNING: Title underline too short.

Best Practices
------------
/Users/mchetan/Desktop/nrel/projects/3-STABLE/tools/remoteOpenFASTplotter/docs/annotations.rst:99: WARNING: Title underline too short.

Best Practices
------------
/Users/mchetan/Desktop/nrel/projects/3-STABLE/tools/remoteOpenFASTplotter/docs/api/app.rst:1: WARNING: Title overline too short.

==========
Application
==========
/Users/mchetan/Desktop/nrel/projects/3-STABLE/tools/remoteOpenFASTplotter/docs/api/app.rst:8: WARNING: Title underline too short.

App Overview
-----------
/Users/mchetan/Desktop/nrel/projects/3-STABLE/tools/remoteOpenFASTplotter/docs/api/app.rst:19: WARNING: Title underline too short.

Key Components
-------------
/Users/mchetan/Desktop/nrel/projects/3-STABLE/tools/remoteOpenFASTplotter/docs/api/app.rst:19: WARNING: Title underline too short.

Key Components
-------------
/Users/mchetan/Desktop/nrel/projects/3-STABLE/tools/remoteOpenFASTplotter/docs/api/app.rst:22: WARNING: Title underline too short.

Application Initialization
~~~~~~~~~~~~~~~~~~~~~~~~~
/Users/mchetan/Desktop/nrel/projects/3-STABLE/tools/remoteOpenFASTplotter/docs/api/app.rst:44: WARNING: Title underline too short.

Server Configuration
~~~~~~~~~~~~~~~~~~~
/Users/mchetan/Desktop/nrel/projects/3-STABLE/tools/remoteOpenFASTplotter/docs/api/app.rst:44: WARNING: Title underline too short.

Server Configuration
~~~~~~~~~~~~~~~~~~~
/Users/mchetan/Desktop/nrel/projects/3-STABLE/tools/remoteOpenFASTplotter/docs/api/app.rst:60: WARNING: Title underline too short.

Layout Setup
~~~~~~~~~~~
/Users/mchetan/Desktop/nrel/projects/3-STABLE/tools/remoteOpenFASTplotter/docs/api/app.rst:60: WARNING: Title underline too short.

Layout Setup
~~~~~~~~~~~
/Users/mchetan/Desktop/nrel/projects/3-STABLE/tools/remoteOpenFASTplotter/docs/api/app.rst:70: WARNING: Title underline too short.

Callbacks Registration
~~~~~~~~~~~~~~~~~~~~~
/Users/mchetan/Desktop/nrel/projects/3-STABLE/tools/remoteOpenFASTplotter/docs/api/app.rst:70: WARNING: Title underline too short.

Callbacks Registration
~~~~~~~~~~~~~~~~~~~~~
/Users/mchetan/Desktop/nrel/projects/3-STABLE/tools/remoteOpenFASTplotter/docs/api/app.rst:82: WARNING: Title underline too short.

Main Function
------------
/Users/mchetan/Desktop/nrel/projects/3-STABLE/tools/remoteOpenFASTplotter/docs/api/app.rst:82: WARNING: Title underline too short.

Main Function
------------
/Users/mchetan/Desktop/nrel/projects/3-STABLE/tools/remoteOpenFASTplotter/docs/api/app.rst:114: WARNING: Title underline too short.

Command Line Arguments
--------------------
/Users/mchetan/Desktop/nrel/projects/3-STABLE/tools/remoteOpenFASTplotter/docs/api/app.rst:114: WARNING: Title underline too short.

Command Line Arguments
--------------------
/Users/mchetan/Desktop/nrel/projects/3-STABLE/tools/remoteOpenFASTplotter/docs/api/app.rst:129: WARNING: Title underline too short.

Port Retry Logic
--------------
/Users/mchetan/Desktop/nrel/projects/3-STABLE/tools/remoteOpenFASTplotter/docs/api/app.rst:129: WARNING: Title underline too short.

Port Retry Logic
--------------
/Users/mchetan/Desktop/nrel/projects/3-STABLE/tools/remoteOpenFASTplotter/docs/api/index.rst:7: WARNING: toctree contains reference to nonexisting document 'api/data_manager'
/Users/mchetan/Desktop/nrel/projects/3-STABLE/tools/remoteOpenFASTplotter/docs/api/index.rst:7: WARNING: toctree contains reference to nonexisting document 'api/components'
/Users/mchetan/Desktop/nrel/projects/3-STABLE/tools/remoteOpenFASTplotter/docs/api/index.rst:7: WARNING: toctree contains reference to nonexisting document 'api/utils'
/Users/mchetan/Desktop/nrel/projects/3-STABLE/tools/remoteOpenFASTplotter/docs/api/index.rst:7: WARNING: toctree contains reference to nonexisting document 'api/html_exporter'
/Users/mchetan/Desktop/nrel/projects/3-STABLE/tools/remoteOpenFASTplotter/docs/api/index.rst:7: WARNING: toctree contains reference to nonexisting document 'api/user_preferences'
/Users/mchetan/Desktop/nrel/projects/3-STABLE/tools/remoteOpenFASTplotter/docs/api/index.rst:7: WARNING: toctree contains reference to nonexisting document 'api/callbacks'
/Users/mchetan/Desktop/nrel/projects/3-STABLE/tools/remoteOpenFASTplotter/docs/api/index.rst:7: WARNING: toctree contains reference to nonexisting document 'api/tools'
/Users/mchetan/Desktop/nrel/projects/3-STABLE/tools/remoteOpenFASTplotter/docs/api/index.rst:21: WARNING: Title underline too short.

Core Modules
-----------
/Users/mchetan/Desktop/nrel/projects/3-STABLE/tools/remoteOpenFASTplotter/docs/api/index.rst:36: WARNING: Title underline too short.

data_manager
~~~~~~~~~~~
/Users/mchetan/Desktop/nrel/projects/3-STABLE/tools/remoteOpenFASTplotter/docs/api/index.rst:36: WARNING: Title underline too short.

data_manager
~~~~~~~~~~~
/Users/mchetan/Desktop/nrel/projects/3-STABLE/tools/remoteOpenFASTplotter/docs/api/index.rst:45: WARNING: Title underline too short.

components
~~~~~~~~~
/Users/mchetan/Desktop/nrel/projects/3-STABLE/tools/remoteOpenFASTplotter/docs/api/index.rst:45: WARNING: Title underline too short.

components
~~~~~~~~~
/Users/mchetan/Desktop/nrel/projects/3-STABLE/tools/remoteOpenFASTplotter/docs/api/index.rst:54: WARNING: Title underline too short.

utils
~~~~
/Users/mchetan/Desktop/nrel/projects/3-STABLE/tools/remoteOpenFASTplotter/docs/api/index.rst:54: WARNING: Title underline too short.

utils
~~~~
/Users/mchetan/Desktop/nrel/projects/3-STABLE/tools/remoteOpenFASTplotter/docs/api/index.rst:63: WARNING: Title underline too short.

Specialized Modules
-----------------
/Users/mchetan/Desktop/nrel/projects/3-STABLE/tools/remoteOpenFASTplotter/docs/api/index.rst:63: WARNING: Title underline too short.

Specialized Modules
-----------------
/Users/mchetan/Desktop/nrel/projects/3-STABLE/tools/remoteOpenFASTplotter/docs/api/index.rst:66: WARNING: Title underline too short.

html_exporter
~~~~~~~~~~~
/Users/mchetan/Desktop/nrel/projects/3-STABLE/tools/remoteOpenFASTplotter/docs/api/index.rst:75: WARNING: Title underline too short.

user_preferences
~~~~~~~~~~~~~
/Users/mchetan/Desktop/nrel/projects/3-STABLE/tools/remoteOpenFASTplotter/docs/api/index.rst:75: WARNING: Title underline too short.

user_preferences
~~~~~~~~~~~~~
/Users/mchetan/Desktop/nrel/projects/3-STABLE/tools/remoteOpenFASTplotter/docs/api/index.rst:84: WARNING: Title underline too short.

Callback Organization
------------------
/Users/mchetan/Desktop/nrel/projects/3-STABLE/tools/remoteOpenFASTplotter/docs/api/index.rst:84: WARNING: Title underline too short.

Callback Organization
------------------
/Users/mchetan/Desktop/nrel/projects/3-STABLE/tools/remoteOpenFASTplotter/docs/api/index.rst:98: WARNING: Title underline too short.

Tools Package
-----------
/Users/mchetan/Desktop/nrel/projects/3-STABLE/tools/remoteOpenFASTplotter/docs/api/index.rst:98: WARNING: Title underline too short.

Tools Package
-----------
/Users/mchetan/Desktop/nrel/projects/3-STABLE/tools/remoteOpenFASTplotter/docs/development/contributing.rst:1: WARNING: Title overline too short.

===========
Contributing
===========
/Users/mchetan/Desktop/nrel/projects/3-STABLE/tools/remoteOpenFASTplotter/docs/development/contributing.rst:8: WARNING: Title underline too short.

Contribution Workflow
-------------------
/Users/mchetan/Desktop/nrel/projects/3-STABLE/tools/remoteOpenFASTplotter/docs/development/contributing.rst:68: WARNING: Title underline too short.

Code Style Guidelines
-------------------
/Users/mchetan/Desktop/nrel/projects/3-STABLE/tools/remoteOpenFASTplotter/docs/development/contributing.rst:68: WARNING: Title underline too short.

Code Style Guidelines
-------------------
/Users/mchetan/Desktop/nrel/projects/3-STABLE/tools/remoteOpenFASTplotter/docs/development/contributing.rst:96: WARNING: Title underline too short.

Documentation
-----------
/Users/mchetan/Desktop/nrel/projects/3-STABLE/tools/remoteOpenFASTplotter/docs/development/contributing.rst:96: WARNING: Title underline too short.

Documentation
-----------
/Users/mchetan/Desktop/nrel/projects/3-STABLE/tools/remoteOpenFASTplotter/docs/development/contributing.rst:112: WARNING: Title underline too short.

Testing Requirements
------------------
/Users/mchetan/Desktop/nrel/projects/3-STABLE/tools/remoteOpenFASTplotter/docs/development/contributing.rst:112: WARNING: Title underline too short.

Testing Requirements
------------------
/Users/mchetan/Desktop/nrel/projects/3-STABLE/tools/remoteOpenFASTplotter/docs/development/contributing.rst:122: WARNING: Title underline too short.

Feature Requests and Bug Reports
------------------------------
/Users/mchetan/Desktop/nrel/projects/3-STABLE/tools/remoteOpenFASTplotter/docs/development/contributing.rst:122: WARNING: Title underline too short.

Feature Requests and Bug Reports
------------------------------
/Users/mchetan/Desktop/nrel/projects/3-STABLE/tools/remoteOpenFASTplotter/docs/development/extending.rst:8: WARNING: Title underline too short.

Overview
-------
/Users/mchetan/Desktop/nrel/projects/3-STABLE/tools/remoteOpenFASTplotter/docs/development/extending.rst:18: WARNING: Title underline too short.

Adding New Analysis Tools
-----------------------
/Users/mchetan/Desktop/nrel/projects/3-STABLE/tools/remoteOpenFASTplotter/docs/development/extending.rst:18: WARNING: Title underline too short.

Adding New Analysis Tools
-----------------------
/Users/mchetan/Desktop/nrel/projects/3-STABLE/tools/remoteOpenFASTplotter/docs/development/extending.rst:125: WARNING: Title underline too short.

Adding New UI Components
----------------------
/Users/mchetan/Desktop/nrel/projects/3-STABLE/tools/remoteOpenFASTplotter/docs/development/extending.rst:125: WARNING: Title underline too short.

Adding New UI Components
----------------------
/Users/mchetan/Desktop/nrel/projects/3-STABLE/tools/remoteOpenFASTplotter/docs/development/extending.rst:135: WARNING: Title underline too short.

Extending FFT Analysis
-------------------
/Users/mchetan/Desktop/nrel/projects/3-STABLE/tools/remoteOpenFASTplotter/docs/development/extending.rst:135: WARNING: Title underline too short.

Extending FFT Analysis
-------------------
/Users/mchetan/Desktop/nrel/projects/3-STABLE/tools/remoteOpenFASTplotter/docs/development/extending.rst:173: WARNING: Title underline too short.

Creating New Tabs
---------------
/Users/mchetan/Desktop/nrel/projects/3-STABLE/tools/remoteOpenFASTplotter/docs/development/extending.rst:173: WARNING: Title underline too short.

Creating New Tabs
---------------
/Users/mchetan/Desktop/nrel/projects/3-STABLE/tools/remoteOpenFASTplotter/docs/development/extending.rst:211: WARNING: Title underline too short.

Best Practices
------------
/Users/mchetan/Desktop/nrel/projects/3-STABLE/tools/remoteOpenFASTplotter/docs/development/extending.rst:211: WARNING: Title underline too short.

Best Practices
------------
/Users/mchetan/Desktop/nrel/projects/3-STABLE/tools/remoteOpenFASTplotter/docs/development/index.rst:7: WARNING: toctree contains reference to nonexisting document 'development/setup'
/Users/mchetan/Desktop/nrel/projects/3-STABLE/tools/remoteOpenFASTplotter/docs/development/index.rst:17: WARNING: Title underline too short.

Development Environment Setup
---------------------------
/Users/mchetan/Desktop/nrel/projects/3-STABLE/tools/remoteOpenFASTplotter/docs/development/index.rst:42: WARNING: Title underline too short.

Code Organization
---------------
/Users/mchetan/Desktop/nrel/projects/3-STABLE/tools/remoteOpenFASTplotter/docs/development/index.rst:42: WARNING: Title underline too short.

Code Organization
---------------
/Users/mchetan/Desktop/nrel/projects/3-STABLE/tools/remoteOpenFASTplotter/docs/development/index.rst:55: WARNING: Title underline too short.

Testing
------
/Users/mchetan/Desktop/nrel/projects/3-STABLE/tools/remoteOpenFASTplotter/docs/development/index.rst:55: WARNING: Title underline too short.

Testing
------
/Users/mchetan/Desktop/nrel/projects/3-STABLE/tools/remoteOpenFASTplotter/docs/development/index.rst:78: WARNING: Title underline too short.

Adding New Features
-----------------
/Users/mchetan/Desktop/nrel/projects/3-STABLE/tools/remoteOpenFASTplotter/docs/development/index.rst:78: WARNING: Title underline too short.

Adding New Features
-----------------
/Users/mchetan/Desktop/nrel/projects/3-STABLE/tools/remoteOpenFASTplotter/docs/development/index.rst:95: WARNING: Title underline too short.

Building Documentation
--------------------
/Users/mchetan/Desktop/nrel/projects/3-STABLE/tools/remoteOpenFASTplotter/docs/development/index.rst:95: WARNING: Title underline too short.

Building Documentation
--------------------
/Users/mchetan/Desktop/nrel/projects/3-STABLE/tools/remoteOpenFASTplotter/docs/development/testing.rst:8: WARNING: Title underline too short.

Testing Framework
---------------
/Users/mchetan/Desktop/nrel/projects/3-STABLE/tools/remoteOpenFASTplotter/docs/development/testing.rst:13: WARNING: Title underline too short.

Running Tests
-----------
/Users/mchetan/Desktop/nrel/projects/3-STABLE/tools/remoteOpenFASTplotter/docs/development/testing.rst:13: WARNING: Title underline too short.

Running Tests
-----------
/Users/mchetan/Desktop/nrel/projects/3-STABLE/tools/remoteOpenFASTplotter/docs/development/testing.rst:40: WARNING: Title underline too short.

Test Files
---------
/Users/mchetan/Desktop/nrel/projects/3-STABLE/tools/remoteOpenFASTplotter/docs/development/testing.rst:40: WARNING: Title underline too short.

Test Files
---------
/Users/mchetan/Desktop/nrel/projects/3-STABLE/tools/remoteOpenFASTplotter/docs/development/testing.rst:51: WARNING: Title underline too short.

Test Structure
------------
/Users/mchetan/Desktop/nrel/projects/3-STABLE/tools/remoteOpenFASTplotter/docs/development/testing.rst:51: WARNING: Title underline too short.

Test Structure
------------
/Users/mchetan/Desktop/nrel/projects/3-STABLE/tools/remoteOpenFASTplotter/docs/development/testing.rst:65: WARNING: Title underline too short.

Writing Tests
-----------
/Users/mchetan/Desktop/nrel/projects/3-STABLE/tools/remoteOpenFASTplotter/docs/development/testing.rst:65: WARNING: Title underline too short.

Writing Tests
-----------
/Users/mchetan/Desktop/nrel/projects/3-STABLE/tools/remoteOpenFASTplotter/docs/development/testing.rst:109: WARNING: Title underline too short.

Test Coverage
-----------
/Users/mchetan/Desktop/nrel/projects/3-STABLE/tools/remoteOpenFASTplotter/docs/development/testing.rst:109: WARNING: Title underline too short.

Test Coverage
-----------
/Users/mchetan/Desktop/nrel/projects/3-STABLE/tools/remoteOpenFASTplotter/docs/development/testing.rst:127: WARNING: Title underline too short.

Continuous Integration
--------------------
/Users/mchetan/Desktop/nrel/projects/3-STABLE/tools/remoteOpenFASTplotter/docs/development/testing.rst:127: WARNING: Title underline too short.

Continuous Integration
--------------------
/Users/mchetan/Desktop/nrel/projects/3-STABLE/tools/remoteOpenFASTplotter/docs/examples/basic_workflow.rst:1: WARNING: Title overline too short.

=============
Basic Workflow
=============
/Users/mchetan/Desktop/nrel/projects/3-STABLE/tools/remoteOpenFASTplotter/docs/examples/basic_workflow.rst:8: WARNING: Title underline too short.

Step 1: Loading OpenFAST Files
-----------------------------
/Users/mchetan/Desktop/nrel/projects/3-STABLE/tools/remoteOpenFASTplotter/docs/examples/basic_workflow.rst:28: WARNING: Title underline too short.

Step 2: Creating Time Domain Plots
--------------------------------
/Users/mchetan/Desktop/nrel/projects/3-STABLE/tools/remoteOpenFASTplotter/docs/examples/basic_workflow.rst:28: WARNING: Title underline too short.

Step 2: Creating Time Domain Plots
--------------------------------
/Users/mchetan/Desktop/nrel/projects/3-STABLE/tools/remoteOpenFASTplotter/docs/examples/basic_workflow.rst:48: WARNING: Title underline too short.

Step 3: Performing FFT Analysis
-----------------------------
/Users/mchetan/Desktop/nrel/projects/3-STABLE/tools/remoteOpenFASTplotter/docs/examples/basic_workflow.rst:48: WARNING: Title underline too short.

Step 3: Performing FFT Analysis
-----------------------------
/Users/mchetan/Desktop/nrel/projects/3-STABLE/tools/remoteOpenFASTplotter/docs/examples/basic_workflow.rst:68: WARNING: Title underline too short.

Step 4: Exporting Results
-----------------------
/Users/mchetan/Desktop/nrel/projects/3-STABLE/tools/remoteOpenFASTplotter/docs/examples/basic_workflow.rst:68: WARNING: Title underline too short.

Step 4: Exporting Results
-----------------------
/Users/mchetan/Desktop/nrel/projects/3-STABLE/tools/remoteOpenFASTplotter/docs/examples/basic_workflow.rst:83: WARNING: Title underline too short.

Complete Example: Analyzing Tower Response
----------------------------------------
/Users/mchetan/Desktop/nrel/projects/3-STABLE/tools/remoteOpenFASTplotter/docs/examples/basic_workflow.rst:83: WARNING: Title underline too short.

Complete Example: Analyzing Tower Response
----------------------------------------
/Users/mchetan/Desktop/nrel/projects/3-STABLE/tools/remoteOpenFASTplotter/docs/examples/fft_analysis.rst:8: WARNING: Title underline too short.

FFT Analysis Basics
-----------------
/Users/mchetan/Desktop/nrel/projects/3-STABLE/tools/remoteOpenFASTplotter/docs/examples/fft_analysis.rst:18: WARNING: Title underline too short.

Configuring FFT Parameters
------------------------
/Users/mchetan/Desktop/nrel/projects/3-STABLE/tools/remoteOpenFASTplotter/docs/examples/fft_analysis.rst:18: WARNING: Title underline too short.

Configuring FFT Parameters
------------------------
/Users/mchetan/Desktop/nrel/projects/3-STABLE/tools/remoteOpenFASTplotter/docs/examples/fft_analysis.rst:53: WARNING: Title underline too short.

FFT Analysis Step-by-Step
-----------------------
/Users/mchetan/Desktop/nrel/projects/3-STABLE/tools/remoteOpenFASTplotter/docs/examples/fft_analysis.rst:53: WARNING: Title underline too short.

FFT Analysis Step-by-Step
-----------------------
/Users/mchetan/Desktop/nrel/projects/3-STABLE/tools/remoteOpenFASTplotter/docs/examples/fft_analysis.rst:111: WARNING: Title underline too short.

Example: Comparing Natural Frequencies
------------------------------------
/Users/mchetan/Desktop/nrel/projects/3-STABLE/tools/remoteOpenFASTplotter/docs/examples/fft_analysis.rst:111: WARNING: Title underline too short.

Example: Comparing Natural Frequencies
------------------------------------
/Users/mchetan/Desktop/nrel/projects/3-STABLE/tools/remoteOpenFASTplotter/docs/examples/fft_analysis.rst:154: WARNING: Title underline too short.

Advanced FFT Techniques
---------------------
/Users/mchetan/Desktop/nrel/projects/3-STABLE/tools/remoteOpenFASTplotter/docs/examples/fft_analysis.rst:154: WARNING: Title underline too short.

Advanced FFT Techniques
---------------------
/Users/mchetan/Desktop/nrel/projects/3-STABLE/tools/remoteOpenFASTplotter/docs/examples/fft_analysis.rst:181: WARNING: Title underline too short.

Troubleshooting
-------------
/Users/mchetan/Desktop/nrel/projects/3-STABLE/tools/remoteOpenFASTplotter/docs/examples/fft_analysis.rst:181: WARNING: Title underline too short.

Troubleshooting
-------------
/Users/mchetan/Desktop/nrel/projects/3-STABLE/tools/remoteOpenFASTplotter/docs/examples/index.rst:7: WARNING: toctree contains reference to nonexisting document 'examples/time_series_analysis'
/Users/mchetan/Desktop/nrel/projects/3-STABLE/tools/remoteOpenFASTplotter/docs/examples/index.rst:7: WARNING: toctree contains reference to nonexisting document 'examples/phase_analysis'
/Users/mchetan/Desktop/nrel/projects/3-STABLE/tools/remoteOpenFASTplotter/docs/examples/index.rst:7: WARNING: toctree contains reference to nonexisting document 'examples/annotations'
/Users/mchetan/Desktop/nrel/projects/3-STABLE/tools/remoteOpenFASTplotter/docs/examples/index.rst:18: WARNING: Title underline too short.

Basic Workflow
-------------
/Users/mchetan/Desktop/nrel/projects/3-STABLE/tools/remoteOpenFASTplotter/docs/examples/index.rst:28: WARNING: Title underline too short.

Time Series Analysis
------------------
/Users/mchetan/Desktop/nrel/projects/3-STABLE/tools/remoteOpenFASTplotter/docs/examples/index.rst:28: WARNING: Title underline too short.

Time Series Analysis
------------------
/Users/mchetan/Desktop/nrel/projects/3-STABLE/tools/remoteOpenFASTplotter/docs/examples/index.rst:38: WARNING: Title underline too short.

FFT Analysis
----------
/Users/mchetan/Desktop/nrel/projects/3-STABLE/tools/remoteOpenFASTplotter/docs/examples/index.rst:38: WARNING: Title underline too short.

FFT Analysis
----------
/Users/mchetan/Desktop/nrel/projects/3-STABLE/tools/remoteOpenFASTplotter/docs/examples/index.rst:48: WARNING: Title underline too short.

Phase Analysis
------------
/Users/mchetan/Desktop/nrel/projects/3-STABLE/tools/remoteOpenFASTplotter/docs/examples/index.rst:48: WARNING: Title underline too short.

Phase Analysis
------------
/Users/mchetan/Desktop/nrel/projects/3-STABLE/tools/remoteOpenFASTplotter/docs/examples/index.rst:58: WARNING: Title underline too short.

Working with Annotations
---------------------
/Users/mchetan/Desktop/nrel/projects/3-STABLE/tools/remoteOpenFASTplotter/docs/examples/index.rst:58: WARNING: Title underline too short.

Working with Annotations
---------------------
/Users/mchetan/Desktop/nrel/projects/3-STABLE/tools/remoteOpenFASTplotter/docs/user_guide/getting_started.rst:8: WARNING: Title underline too short.

Application Interface
-------------------
/Users/mchetan/Desktop/nrel/projects/3-STABLE/tools/remoteOpenFASTplotter/docs/user_guide/getting_started.rst:27: WARNING: Title underline too short.

Files Tab
--------
/Users/mchetan/Desktop/nrel/projects/3-STABLE/tools/remoteOpenFASTplotter/docs/user_guide/getting_started.rst:27: WARNING: Title underline too short.

Files Tab
--------
/Users/mchetan/Desktop/nrel/projects/3-STABLE/tools/remoteOpenFASTplotter/docs/user_guide/getting_started.rst:48: WARNING: Title underline too short.

Time Domain Tab
-------------
/Users/mchetan/Desktop/nrel/projects/3-STABLE/tools/remoteOpenFASTplotter/docs/user_guide/getting_started.rst:48: WARNING: Title underline too short.

Time Domain Tab
-------------
/Users/mchetan/Desktop/nrel/projects/3-STABLE/tools/remoteOpenFASTplotter/docs/user_guide/getting_started.rst:65: WARNING: Title underline too short.

FFT Tab
------
/Users/mchetan/Desktop/nrel/projects/3-STABLE/tools/remoteOpenFASTplotter/docs/user_guide/getting_started.rst:65: WARNING: Title underline too short.

FFT Tab
------
/Users/mchetan/Desktop/nrel/projects/3-STABLE/tools/remoteOpenFASTplotter/docs/user_guide/getting_started.rst:83: WARNING: Title underline too short.

Phase Tab
--------
/Users/mchetan/Desktop/nrel/projects/3-STABLE/tools/remoteOpenFASTplotter/docs/user_guide/getting_started.rst:83: WARNING: Title underline too short.

Phase Tab
--------
/Users/mchetan/Desktop/nrel/projects/3-STABLE/tools/remoteOpenFASTplotter/docs/user_guide/getting_started.rst:100: WARNING: Title underline too short.

Quick Workflow Example
--------------------
/Users/mchetan/Desktop/nrel/projects/3-STABLE/tools/remoteOpenFASTplotter/docs/user_guide/getting_started.rst:100: WARNING: Title underline too short.

Quick Workflow Example
--------------------
/Users/mchetan/Desktop/nrel/projects/3-STABLE/tools/remoteOpenFASTplotter/docs/user_guide/getting_started.rst:130: WARNING: Title underline too short.

Next Steps
---------
/Users/mchetan/Desktop/nrel/projects/3-STABLE/tools/remoteOpenFASTplotter/docs/user_guide/getting_started.rst:130: WARNING: Title underline too short.

Next Steps
---------
/Users/mchetan/Desktop/nrel/projects/3-STABLE/tools/remoteOpenFASTplotter/docs/user_guide/index.rst:7: WARNING: toctree contains reference to nonexisting document 'user_guide/file_management'
/Users/mchetan/Desktop/nrel/projects/3-STABLE/tools/remoteOpenFASTplotter/docs/user_guide/index.rst:7: WARNING: toctree contains reference to nonexisting document 'user_guide/time_domain_plots'
/Users/mchetan/Desktop/nrel/projects/3-STABLE/tools/remoteOpenFASTplotter/docs/user_guide/index.rst:7: WARNING: toctree contains reference to nonexisting document 'user_guide/fft_analysis'
/Users/mchetan/Desktop/nrel/projects/3-STABLE/tools/remoteOpenFASTplotter/docs/user_guide/index.rst:7: WARNING: toctree contains reference to nonexisting document 'user_guide/phase_analysis'
/Users/mchetan/Desktop/nrel/projects/3-STABLE/tools/remoteOpenFASTplotter/docs/user_guide/index.rst:7: WARNING: toctree contains reference to nonexisting document 'user_guide/exporting'
/Users/mchetan/Desktop/nrel/projects/3-STABLE/tools/remoteOpenFASTplotter/docs/user_guide/index.rst:7: WARNING: toctree contains reference to nonexisting document 'user_guide/path_management'
/Users/mchetan/Desktop/nrel/projects/3-STABLE/tools/remoteOpenFASTplotter/docs/user_guide/index.rst:30: WARNING: Title underline too short.

Basic Workflow
-------------
/Users/mchetan/Desktop/nrel/projects/3-STABLE/tools/remoteOpenFASTplotter/docs/user_guide/index.rst:30: WARNING: Title underline too short.

Basic Workflow
-------------
looking for now-outdated files... none found
pickling environment... done
checking consistency... done
preparing documents... done
copying assets... copying static files... done
copying extra files... done
done
[2Kwriting output... [  8%] annotations[2Kwriting output... [ 15%] api/app[2Kwriting output... [ 23%] api/index[2Kwriting output... [ 31%] development/contributing[2Kwriting output... [ 38%] development/extending[2Kwriting output... [ 46%] development/index[2Kwriting output... [ 54%] development/testing[2Kwriting output... [ 62%] examples/basic_workflow[2Kwriting output... [ 69%] examples/fft_analysis[2Kwriting output... [ 77%] examples/index[2Kwriting output... [ 85%] index[2Kwriting output... [ 92%] user_guide/getting_started[2Kwriting output... [100%] user_guide/index
/Users/mchetan/Desktop/nrel/projects/3-STABLE/tools/remoteOpenFASTplotter/docs/examples/index.rst:30: WARNING: unknown document: 'time_series_analysis'
/Users/mchetan/Desktop/nrel/projects/3-STABLE/tools/remoteOpenFASTplotter/docs/examples/index.rst:50: WARNING: unknown document: 'phase_analysis'
/Users/mchetan/Desktop/nrel/projects/3-STABLE/tools/remoteOpenFASTplotter/docs/examples/index.rst:60: WARNING: unknown document: 'annotations'
generating indices... genindex done
highlighting module code... 
writing additional pages... search done
[2Kcopying images... [100%] ../assets/wind_turbine_plot.png
dumping search index in English (code: en)... done
dumping object inventory... done
build succeeded, 156 warnings.

The HTML pages are in _build/html.
